functions/OneTimeScripts/validationAgainstOpenDSS_MATLAB/ieee123_1ph_created/results/powers20.csv
Element, Terminal, P(kW), Q(kvar),  P_Normal, Q_Normal, P_Emergency, Q_Emergency
"Line.L115"             ,   1,       699.5,       150.2,         0.0,         0.0,         0.0,         0.0
"Line.L115"             ,   2,      -697.5,      -146.1
"Line.L1"               ,   1,         3.9,         2.0,         0.0,         0.0,         0.0,         0.0
"Line.L1"               ,   2,        -3.9,        -2.0
"Line.L2"               ,   1,        19.7,         9.9,         0.0,         0.0,         0.0,         0.0
"Line.L2"               ,   2,       -19.7,        -9.9
"Line.L3"               ,   1,       665.9,       130.3,         0.0,         0.0,         0.0,         0.0
"Line.L3"               ,   2,      -664.5,      -127.4
"Line.L4"               ,   1,         7.9,         3.9,         0.0,         0.0,         0.0,         0.0
"Line.L4"               ,   2,        -7.9,        -3.9
"Line.L5"               ,   1,        11.8,         5.9,         0.0,         0.0,         0.0,         0.0
"Line.L5"               ,   2,       -11.8,        -5.9
"Line.L6"               ,   1,         7.9,         3.9,         0.0,         0.0,         0.0,         0.0
"Line.L6"               ,   2,        -7.9,        -3.9
"Line.L7"               ,   1,       660.6,       125.5,         0.0,         0.0,         0.0,         0.0
"Line.L7"               ,   2,      -659.7,      -123.6
"Line.L8"               ,   1,         3.9,         2.0,         0.0,         0.0,         0.0,         0.0
"Line.L8"               ,   2,        -3.9,        -2.0
"Line.L9"               ,   1,        19.7,         9.9,         0.0,         0.0,         0.0,         0.0
"Line.L9"               ,   2,       -19.7,        -9.9
"Line.L10"              ,   1,       636.0,       111.8,         0.0,         0.0,         0.0,         0.0
"Line.L10"              ,   2,      -634.7,      -109.2
"Line.L11"              ,   1,        11.8,         5.9,         0.0,         0.0,         0.0,         0.0
"Line.L11"              ,   2,       -11.8,        -5.9
"Line.L12"              ,   1,        19.7,         9.9,         0.0,         0.0,         0.0,         0.0
"Line.L12"              ,   2,       -19.7,        -9.9
"Line.L13"              ,   1,       221.0,       130.1,         0.0,         0.0,         0.0,         0.0
"Line.L13"              ,   2,      -220.4,      -128.9
"Line.L14"              ,   1,         7.9,         3.9,         0.0,         0.0,         0.0,         0.0
"Line.L14"              ,   2,        -7.9,        -3.9
"Line.L15"              ,   1,         3.9,         2.0,         0.0,         0.0,         0.0,         0.0
"Line.L15"              ,   2,        -3.9,        -2.0
"Line.L16"              ,   1,         7.9,         3.9,         0.0,         0.0,         0.0,         0.0
"Line.L16"              ,   2,        -7.9,        -3.9
"Line.L17"              ,   1,         3.9,         2.0,         0.0,         0.0,         0.0,         0.0
"Line.L17"              ,   2,        -3.9,        -2.0
"Line.L18"              ,   1,        15.8,         7.9,         0.0,         0.0,         0.0,         0.0
"Line.L18"              ,   2,       -15.8,        -7.9
"Line.L19"              ,   1,        55.3,        27.7,         0.0,         0.0,         0.0,         0.0
"Line.L19"              ,   2,       -55.3,       -27.6
"Line.L20"              ,   1,         7.9,         3.9,         0.0,         0.0,         0.0,         0.0
"Line.L20"              ,   2,        -7.9,        -3.9
"Line.L21"              ,   1,         7.9,         3.9,         0.0,         0.0,         0.0,         0.0
"Line.L21"              ,   2,        -7.9,        -3.9
"Line.L22"              ,   1,        47.4,        23.7,         0.0,         0.0,         0.0,         0.0
"Line.L22"              ,   2,       -47.4,       -23.7
"Line.L23"              ,   1,         7.9,         3.9,         0.0,         0.0,         0.0,         0.0
"Line.L23"              ,   2,        -7.9,        -3.9
"Line.L24"              ,   1,        39.5,        19.7,         0.0,         0.0,         0.0,         0.0
"Line.L24"              ,   2,       -39.5,       -19.7
"Line.L25"              ,   1,        15.8,         7.9,         0.0,         0.0,         0.0,         0.0
"Line.L25"              ,   2,       -15.8,        -7.9
"Line.L26"              ,   1,        23.7,        11.8,         0.0,         0.0,         0.0,         0.0
"Line.L26"              ,   2,       -23.7,       -11.8
"Line.L27"              ,   1,         7.9,         3.9,         0.0,         0.0,         0.0,         0.0
"Line.L27"              ,   2,        -7.9,        -3.9
"Line.L28"              ,   1,         7.9,         3.9,         0.0,         0.0,         0.0,         0.0
"Line.L28"              ,   2,        -7.9,        -3.9
"Line.L29"              ,   1,         7.9,         3.9,         0.0,         0.0,         0.0,         0.0
"Line.L29"              ,   2,        -7.9,        -3.9
"Line.L30"              ,   1,        15.8,         7.9,         0.0,         0.0,         0.0,         0.0
"Line.L30"              ,   2,       -15.8,        -7.9
"Line.L31"              ,   1,         7.9,         3.9,         0.0,         0.0,         0.0,         0.0
"Line.L31"              ,   2,        -7.9,        -3.9
"Line.L32"              ,   1,         0.0,        -0.0,         0.0,         0.0,         0.0,         0.0
"Line.L32"              ,   2,         0.0,        -0.0
"Line.L33"              ,   1,         3.9,         2.0,         0.0,         0.0,         0.0,         0.0
"Line.L33"              ,   2,        -3.9,        -2.0
"Line.L34"              ,   1,        11.8,         5.9,         0.0,         0.0,         0.0,         0.0
"Line.L34"              ,   2,       -11.8,        -5.9
"Line.L35"              ,   1,        15.8,         7.9,         0.0,         0.0,         0.0,         0.0
"Line.L35"              ,   2,       -15.8,        -7.9
"Line.L36"              ,   1,       125.5,        81.3,         0.0,         0.0,         0.0,         0.0
"Line.L36"              ,   2,      -125.5,       -81.2
"Line.L37"              ,   1,         7.9,         3.9,         0.0,         0.0,         0.0,         0.0
"Line.L37"              ,   2,        -7.9,        -3.9
"Line.L38"              ,   1,         7.9,         3.9,         0.0,         0.0,         0.0,         0.0
"Line.L38"              ,   2,        -7.9,        -3.9
"Line.L39"              ,   1,         3.9,         2.0,         0.0,         0.0,         0.0,         0.0
"Line.L39"              ,   2,        -3.9,        -2.0
"Line.L40"              ,   1,         3.9,         2.0,         0.0,         0.0,         0.0,         0.0
"Line.L40"              ,   2,        -3.9,        -2.0
"Line.L41"              ,   1,       121.5,        79.2,         0.0,         0.0,         0.0,         0.0
"Line.L41"              ,   2,      -121.5,       -79.1
"Line.L42"              ,   1,         7.9,         3.9,         0.0,         0.0,         0.0,         0.0
"Line.L42"              ,   2,        -7.9,        -3.9
"Line.L43"              ,   1,       109.6,        73.2,         0.0,         0.0,         0.0,         0.0
"Line.L43"              ,   2,      -109.6,       -73.1
"Line.L44"              ,   1,         7.9,         3.9,         0.0,         0.0,         0.0,         0.0
"Line.L44"              ,   2,        -7.9,        -3.9
"Line.L45"              ,   1,       101.7,        69.2,         0.0,         0.0,         0.0,         0.0
"Line.L45"              ,   2,      -101.6,       -69.1
"Line.L46"              ,   1,         3.9,         2.0,         0.0,         0.0,         0.0,         0.0
"Line.L46"              ,   2,        -3.9,        -2.0
"Line.L47"              ,   1,        41.4,        29.6,         0.0,         0.0,         0.0,         0.0
"Line.L47"              ,   2,       -41.4,       -29.6
"Line.L48"              ,   1,        39.5,        24.7,         0.0,         0.0,         0.0,         0.0
"Line.L48"              ,   2,       -39.5,       -24.7
"Line.L49"              ,   1,        11.8,         5.9,         0.0,         0.0,         0.0,         0.0
"Line.L49"              ,   2,       -11.8,        -5.9
"Line.L50"              ,   1,         3.9,         2.0,         0.0,         0.0,         0.0,         0.0
"Line.L50"              ,   2,        -3.9,        -2.0
"Line.L51"              ,   1,         0.0,        -0.0,         0.0,         0.0,         0.0,         0.0
"Line.L51"              ,   2,         0.0,         0.0
"Line.L52"              ,   1,       385.5,       -36.0,         0.0,         0.0,         0.0,         0.0
"Line.L52"              ,   2,      -385.2,        36.6
"Line.L53"              ,   1,       377.3,       -40.6,         0.0,         0.0,         0.0,         0.0
"Line.L53"              ,   2,      -377.1,        41.0
"Line.L54"              ,   1,         7.9,         3.9,         0.0,         0.0,         0.0,         0.0
"Line.L54"              ,   2,        -7.9,        -3.9
"Line.L55"              ,   1,       369.2,       -44.9,         0.0,         0.0,         0.0,         0.0
"Line.L55"              ,   2,      -368.7,        45.9
"Line.L56"              ,   1,         3.9,         2.0,         0.0,         0.0,         0.0,         0.0
"Line.L56"              ,   2,        -3.9,        -2.0
"Line.L57"              ,   1,         7.9,         3.9,         0.0,         0.0,         0.0,         0.0
"Line.L57"              ,   2,        -7.9,        -3.9
"Line.L58"              ,   1,       360.8,       -49.9,         0.0,         0.0,         0.0,         0.0
"Line.L58"              ,   2,      -359.8,        51.9
"Line.L59"              ,   1,         3.9,         2.0,         0.0,         0.0,         0.0,         0.0
"Line.L59"              ,   2,        -3.9,        -2.0
"Line.L60"              ,   1,         0.0,        -0.0,         0.0,         0.0,         0.0,         0.0
"Line.L60"              ,   2,        -0.0,         0.0
"Line.L61"              ,   1,        73.2,        41.4,         0.0,         0.0,         0.0,         0.0
"Line.L61"              ,   2,       -73.1,       -41.4
"Line.L62"              ,   1,        65.3,        37.5,         0.0,         0.0,         0.0,         0.0
"Line.L62"              ,   2,       -65.2,       -37.5
"Line.L63"              ,   1,        57.3,        33.5,         0.0,         0.0,         0.0,         0.0
"Line.L63"              ,   2,       -57.3,       -33.5
"Line.L64"              ,   1,        42.5,        26.6,         0.0,         0.0,         0.0,         0.0
"Line.L64"              ,   2,       -42.4,       -26.6
"Line.L65"              ,   1,        14.8,         6.9,         0.0,         0.0,         0.0,         0.0
"Line.L65"              ,   2,       -14.8,        -6.9
"Line.L66"              ,   1,        23.7,        11.9,         0.0,         0.0,         0.0,         0.0
"Line.L66"              ,   2,       -23.7,       -11.8
"Line.L67"              ,   1,       171.7,      -151.4,         0.0,         0.0,         0.0,         0.0
"Line.L67"              ,   2,      -171.5,       151.7
"Line.L68"              ,   1,        86.9,        43.5,         0.0,         0.0,         0.0,         0.0
"Line.L68"              ,   2,       -86.9,       -43.5
"Line.L69"              ,   1,        19.7,         9.9,         0.0,         0.0,         0.0,         0.0
"Line.L69"              ,   2,       -19.7,        -9.9
"Line.L70"              ,   1,        11.8,         5.9,         0.0,         0.0,         0.0,         0.0
"Line.L70"              ,   2,       -11.8,        -5.9
"Line.L71"              ,   1,         7.9,         3.9,         0.0,         0.0,         0.0,         0.0
"Line.L71"              ,   2,        -7.9,        -3.9
"Line.L72"              ,   1,        23.7,        11.9,         0.0,         0.0,         0.0,         0.0
"Line.L72"              ,   2,       -23.7,       -11.8
"Line.L73"              ,   1,       147.8,      -163.6,         0.0,         0.0,         0.0,         0.0
"Line.L73"              ,   2,      -147.7,       163.8
"Line.L74"              ,   1,        15.8,         7.9,         0.0,         0.0,         0.0,         0.0
"Line.L74"              ,   2,       -15.8,        -7.9
"Line.L75"              ,   1,         7.9,         3.9,         0.0,         0.0,         0.0,         0.0
"Line.L75"              ,   2,        -7.9,        -3.9
"Line.L76"              ,   1,        48.0,      -175.1,         0.0,         0.0,         0.0,         0.0
"Line.L76"              ,   2,       -47.9,       175.3
"Line.L77"              ,   1,        51.4,       -24.3,         0.0,         0.0,         0.0,         0.0
"Line.L77"              ,   2,       -51.3,        24.3
"Line.L78"              ,   1,        40.0,      -179.3,         0.0,         0.0,         0.0,         0.0
"Line.L78"              ,   2,       -39.9,       179.4
"Line.L79"              ,   1,         7.9,         3.9,         0.0,         0.0,         0.0,         0.0
"Line.L79"              ,   2,        -7.9,        -3.9
"Line.L80"              ,   1,        32.0,      -183.3,         0.0,         0.0,         0.0,         0.0
"Line.L80"              ,   2,       -31.9,       183.7
"Line.L81"              ,   1,        24.0,      -187.6,         0.0,         0.0,         0.0,         0.0
"Line.L81"              ,   2,       -23.9,       187.7
"Line.L82"              ,   1,        12.0,      -193.7,         0.0,         0.0,         0.0,         0.0
"Line.L82"              ,   2,       -11.9,       193.9
"Line.L83"              ,   1,        11.8,         5.9,         0.0,         0.0,         0.0,         0.0
"Line.L83"              ,   2,       -11.8,        -5.9
"Line.L84"              ,   1,         4.1,      -197.8,         0.0,         0.0,         0.0,         0.0
"Line.L84"              ,   2,        -3.9,       198.0
"Line.L85"              ,   1,         7.9,         3.9,         0.0,         0.0,         0.0,         0.0
"Line.L85"              ,   2,        -7.9,        -3.9
"Line.L86"              ,   1,        47.4,       -26.3,         0.0,         0.0,         0.0,         0.0
"Line.L86"              ,   2,       -47.4,        26.3
"Line.L87"              ,   1,         7.9,       -12.7,         0.0,         0.0,         0.0,         0.0
"Line.L87"              ,   2,        -7.9,        12.7
"Line.L88"              ,   1,        31.6,       -17.5,         0.0,         0.0,         0.0,         0.0
"Line.L88"              ,   2,       -31.6,        17.5
"Line.L89"              ,   1,         7.9,       -12.7,         0.0,         0.0,         0.0,         0.0
"Line.L89"              ,   2,        -7.9,        12.7
"Line.L90"              ,   1,        23.7,        -4.8,         0.0,         0.0,         0.0,         0.0
"Line.L90"              ,   2,       -23.7,         4.8
"Line.L91"              ,   1,         7.9,       -12.7,         0.0,         0.0,         0.0,         0.0
"Line.L91"              ,   2,        -7.9,        12.7
"Line.L92"              ,   1,        15.8,         7.9,         0.0,         0.0,         0.0,         0.0
"Line.L92"              ,   2,       -15.8,        -7.9
"Line.L93"              ,   1,         7.9,         3.9,         0.0,         0.0,         0.0,         0.0
"Line.L93"              ,   2,        -7.9,        -3.9
"Line.L94"              ,   1,         7.9,         3.9,         0.0,         0.0,         0.0,         0.0
"Line.L94"              ,   2,        -7.9,        -3.9
"Line.L95"              ,   1,         3.9,         2.0,         0.0,         0.0,         0.0,         0.0
"Line.L95"              ,   2,        -3.9,        -2.0
"Line.L96"              ,   1,        23.7,        11.8,         0.0,         0.0,         0.0,         0.0
"Line.L96"              ,   2,       -23.7,       -11.8
"Line.L97"              ,   1,        15.8,         7.9,         0.0,         0.0,         0.0,         0.0
"Line.L97"              ,   2,       -15.8,        -7.9
"Line.L98"              ,   1,         7.9,         3.9,         0.0,         0.0,         0.0,         0.0
"Line.L98"              ,   2,        -7.9,        -3.9
"Line.L99"              ,   1,         0.0,        -0.0,         0.0,         0.0,         0.0,         0.0
"Line.L99"              ,   2,         0.0,         0.0
"Line.L118"             ,   1,        63.2,        31.6,         0.0,         0.0,         0.0,         0.0
"Line.L118"             ,   2,       -63.2,       -31.6
"Line.L100"             ,   1,        19.7,         9.9,         0.0,         0.0,         0.0,         0.0
"Line.L100"             ,   2,       -19.7,        -9.9
"Line.L101"             ,   1,        43.5,        21.7,         0.0,         0.0,         0.0,         0.0
"Line.L101"             ,   2,       -43.5,       -21.7
"Line.L102"             ,   1,        15.8,         7.9,         0.0,         0.0,         0.0,         0.0
"Line.L102"             ,   2,       -15.8,        -7.9
"Line.L103"             ,   1,         7.9,         3.9,         0.0,         0.0,         0.0,         0.0
"Line.L103"             ,   2,        -7.9,        -3.9
"Line.L104"             ,   1,        15.8,         7.9,         0.0,         0.0,         0.0,         0.0
"Line.L104"             ,   2,       -15.8,        -7.9
"Line.L105"             ,   1,        27.7,        13.8,         0.0,         0.0,         0.0,         0.0
"Line.L105"             ,   2,       -27.7,       -13.8
"Line.L106"             ,   1,         7.9,         3.9,         0.0,         0.0,         0.0,         0.0
"Line.L106"             ,   2,        -7.9,        -3.9
"Line.L107"             ,   1,        27.7,        13.8,         0.0,         0.0,         0.0,         0.0
"Line.L107"             ,   2,       -27.6,       -13.8
"Line.L108"             ,   1,         0.0,        -0.0,         0.0,         0.0,         0.0,         0.0
"Line.L108"             ,   2,         0.0,         0.0
"Line.L109"             ,   1,        19.7,         9.9,         0.0,         0.0,         0.0,         0.0
"Line.L109"             ,   2,       -19.7,        -9.9
"Line.L110"             ,   1,         3.9,         2.0,         0.0,         0.0,         0.0,         0.0
"Line.L110"             ,   2,        -3.9,        -2.0
"Line.L111"             ,   1,        15.8,         7.9,         0.0,         0.0,         0.0,         0.0
"Line.L111"             ,   2,       -15.8,        -7.9
"Line.L112"             ,   1,        11.8,         5.9,         0.0,         0.0,         0.0,         0.0
"Line.L112"             ,   2,       -11.8,        -5.9
"Line.L113"             ,   1,         3.9,         2.0,         0.0,         0.0,         0.0,         0.0
"Line.L113"             ,   2,        -3.9,        -2.0
"Line.L114"             ,   1,       149.3,        93.4,         0.0,         0.0,         0.0,         0.0
"Line.L114"             ,   2,      -149.2,       -93.1
"Line.L116"             ,   1,       394.0,       -30.8,         0.0,         0.0,         0.0,         0.0
"Line.L116"             ,   2,      -393.4,        32.1
"Line.L117"             ,   1,       282.6,       -95.3,         0.0,         0.0,         0.0,         0.0
"Line.L117"             ,   2,      -282.3,        96.0
"Line.SW1"              ,   1,       699.5,       150.2,         0.0,         0.0,         0.0,         0.0
"Line.SW1"              ,   2,      -699.5,      -150.2
"Line.SW2"              ,   1,       394.0,       -30.8,         0.0,         0.0,         0.0,         0.0
"Line.SW2"              ,   2,      -394.0,        30.8
"Line.SW3"              ,   1,       149.3,        93.4,         0.0,         0.0,         0.0,         0.0
"Line.SW3"              ,   2,      -149.3,       -93.4
"Line.SW4"              ,   1,       282.6,       -95.3,         0.0,         0.0,         0.0,         0.0
"Line.SW4"              ,   2,      -282.6,        95.3
"Line.SW5"              ,   1,        63.2,        31.6,         0.0,         0.0,         0.0,         0.0
"Line.SW5"              ,   2,       -63.2,       -31.6
"Line.XFM1"             ,   1,         0.0,         0.0,         0.0,         0.0,         0.0,         0.0
"Line.XFM1"             ,   2,         0.0,         0.0
"Transformer.REG1A"     ,   1,       699.5,       150.2,         0.0,         0.0,         0.0,         0.0
"Transformer.REG1A"     ,   2,      -699.5,      -150.2
"Transformer.REG2A"     ,   1,        11.8,         5.9,         0.0,         0.0,         0.0,         0.0
"Transformer.REG2A"     ,   2,       -11.8,        -5.9
"Transformer.REG3A"     ,   1,        15.8,         7.9,         0.0,         0.0,         0.0,         0.0
"Transformer.REG3A"     ,   2,       -15.8,        -7.9
"Transformer.REG4A"     ,   1,       282.6,       -95.3,         0.0,         0.0,         0.0,         0.0
"Transformer.REG4A"     ,   2,      -282.6,        95.3
"Load.S1"               ,   1,         7.9,         3.9
"Load.S2"               ,   1,         3.9,         2.0
"Load.S4"               ,   1,         7.9,         3.9
"Load.S5"               ,   1,         3.9,         2.0
"Load.S6"               ,   1,         7.9,         3.9
"Load.S7"               ,   1,         3.9,         2.0
"Load.S9"               ,   1,         7.9,         3.9
"Load.S10"              ,   1,         3.9,         2.0
"Load.S11"              ,   1,         7.9,         3.9
"Load.S12"              ,   1,         3.9,         2.0
"Load.S16"              ,   1,         7.9,         3.9
"Load.S17"              ,   1,         3.9,         2.0
"Load.S19"              ,   1,         7.9,         3.9
"Load.S20"              ,   1,         7.9,         3.9
"Load.S22"              ,   1,         7.9,         3.9
"Load.S24"              ,   1,         7.9,         3.9
"Load.S28"              ,   1,         7.9,         3.9
"Load.S29"              ,   1,         7.9,         3.9
"Load.S30"              ,   1,         7.9,         3.9
"Load.S31"              ,   1,         3.9,         2.0
"Load.S32"              ,   1,         3.9,         2.0
"Load.S33"              ,   1,         7.9,         3.9
"Load.S34"              ,   1,         7.9,         3.9
"Load.S35"              ,   1,         7.9,         3.9
"Load.S37"              ,   1,         7.9,         3.9
"Load.S38"              ,   1,         3.9,         2.0
"Load.S39"              ,   1,         3.9,         2.0
"Load.S41"              ,   1,         3.9,         2.0
"Load.S42"              ,   1,         3.9,         2.0
"Load.S43"              ,   1,         7.9,         3.9
"Load.S45"              ,   1,         3.9,         2.0
"Load.S46"              ,   1,         3.9,         2.0
"Load.S47"              ,   1,        20.7,        14.8
"Load.S48"              ,   1,        41.4,        29.6
"Load.S49"              ,   1,        27.6,        18.7
"Load.S50"              ,   1,         7.9,         3.9
"Load.S51"              ,   1,         3.9,         2.0
"Load.S52"              ,   1,         7.9,         3.9
"Load.S53"              ,   1,         7.9,         3.9
"Load.S55"              ,   1,         3.9,         2.0
"Load.S56"              ,   1,         3.9,         2.0
"Load.S58"              ,   1,         3.9,         2.0
"Load.S59"              ,   1,         3.9,         2.0
"Load.S60"              ,   1,         3.9,         2.0
"Load.S62"              ,   1,         7.9,         3.9
"Load.S63"              ,   1,         7.9,         3.9
"Load.S64"              ,   1,        14.8,         6.9
"Load.S65"              ,   1,        27.6,        19.7
"Load.S66"              ,   1,        14.8,         6.9
"Load.S68"              ,   1,         3.9,         2.0
"Load.S69"              ,   1,         7.9,         3.9
"Load.S70"              ,   1,         3.9,         2.0
"Load.S71"              ,   1,         7.9,         3.9
"Load.S73"              ,   1,         7.9,         3.9
"Load.S74"              ,   1,         7.9,         3.9
"Load.S75"              ,   1,         7.9,         3.9
"Load.S76"              ,   1,        48.3,        35.5
"Load.S77"              ,   1,         7.9,         3.9
"Load.S79"              ,   1,         7.9,         3.9
"Load.S80"              ,   1,         7.9,         3.9
"Load.S82"              ,   1,         7.9,         3.9
"Load.S83"              ,   1,         3.9,         2.0
"Load.S84"              ,   1,         3.9,         2.0
"Load.S85"              ,   1,         7.9,         3.9
"Load.S86"              ,   1,         3.9,         2.0
"Load.S87"              ,   1,         7.9,         3.9
"Load.S88"              ,   1,         7.9,         3.9
"Load.S90"              ,   1,         7.9,         3.9
"Load.S92"              ,   1,         7.9,         3.9
"Load.S94"              ,   1,         7.9,         3.9
"Load.S95"              ,   1,         3.9,         2.0
"Load.S96"              ,   1,         3.9,         2.0
"Load.S98"              ,   1,         7.9,         3.9
"Load.S99"              ,   1,         7.9,         3.9
"Load.S100"             ,   1,         7.9,         3.9
"Load.S102"             ,   1,         3.9,         2.0
"Load.S103"             ,   1,         7.9,         3.9
"Load.S104"             ,   1,         7.9,         3.9
"Load.S106"             ,   1,         7.9,         3.9
"Load.S107"             ,   1,         7.9,         3.9
"Load.S109"             ,   1,         7.9,         3.9
"Load.S111"             ,   1,         3.9,         2.0
"Load.S112"             ,   1,         3.9,         2.0
"Load.S113"             ,   1,         7.9,         3.9
"Load.S114"             ,   1,         3.9,         2.0
"Generator.C83"         ,   1,         0.0,      -200.0
"Generator.C88"         ,   1,         0.0,       -16.7
"Generator.C90"         ,   1,         0.0,       -16.7
"Generator.C92"         ,   1,         0.0,       -16.7
